sol/case57.m
function mpc = case57
%CASE57

%% MATPOWER Case Format : Version 2
mpc.version = '2';

%%-----  Power Flow Data  -----%%
%% system MVA base
mpc.baseMVA = 100;

%% bus data
%	bus_i	type	Pd	Qd	Gs	Bs	area	Vm	Va	baseKV	zone	Vmax	Vmin	lam_P	lam_Q	mu_Vmax	mu_Vmin
mpc.bus = [
	1	3	55	17	0	0	1	1.0093022	0	0	1	1.06	0.94	42.1304	0.0000	0.0000	0.0000;
	2	2	3	88	0	0	1	1.00756528	0.820796566	0	1	1.06	0.94	41.7563	0.1583	0.0000	0.0000;
	3	2	41	21	0	0	1	1.00327081	-1.16928516	0	1	1.06	0.94	42.5361	0.0000	0.0000	0.0000;
	4	1	0	0	0	0	1	1.00647096	-1.06550129	0	1	1.06	0.94	42.4987	0.0112	0.0000	0.0000;
	5	1	13	4	0	0	1	1.01579977	-0.0349334058	0	1	1.06	0.94	42.0073	0.0459	0.0000	0.0000;
	6	2	75	2	0	0	1	1.02566431	0.880770248	0	1	1.06	0.94	41.4578	-0.0000	0.0000	0.0000;
	7	1	0	0	0	0	1	1.02438036	1.66641021	0	1	1.06	0.94	41.2331	0.1698	0.0000	0.0000;
	8	2	150	22	0	0	1	1.04380793	4.72394736	0	1	1.06	0.94	40.4366	0.0000	0.0000	0.0000;
	9	2	121	26	0	0	1	1.00405985	-0.0905858507	0	1	1.06	0.94	41.9539	0.2474	0.0000	0.0000;
	10	1	5	2	0	0	1	0.984224297	-3.57920756	0	1	1.06	0.94	43.2071	0.2376	0.0000	0.0000;
	11	1	0	0	0	0	1	0.983845599	-2.24364508	0	1	1.06	0.94	43.0109	0.3936	0.0000	0.0000;
	12	2	377	24	0	0	1	0.991849806	-3.48822825	0	1	1.06	0.94	43.3249	0.0000	0.0000	0.0000;
	13	1	18	2.3	0	0	1	0.977641727	-3.15665506	0	1	1.06	0.94	43.4189	0.2323	0.0000	0.0000;
	14	1	10.5	5.3	0	0	1	0.970308089	-3.5174391	0	1	1.06	0.94	43.5216	0.0978	0.0000	0.0000;
	15	1	22	5	0	0	1	0.988139782	-2.54510497	0	1	1.06	0.94	43.0650	0.0961	0.0000	0.0000;
	16	1	43	3	0	0	1	0.990942879	-3.94918898	0	1	1.06	0.94	43.4708	0.0189	0.0000	0.0000;
	17	1	42	8	0	0	1	0.992758447	-2.89116465	0	1	1.06	0.94	43.1181	0.0878	0.0000	0.0000;
	18	1	27.2	9.8	0	10	1	1.02629477	-5.29725055	0	1	1.06	0.94	42.5329	-0.0168	0.0000	0.0000;
	19	1	3.3	0.6	0	0	1	0.988375055	-6.66444163	0	1	1.06	0.94	44.5571	0.6691	0.0000	0.0000;
	20	1	2.3	1	0	0	1	0.977077374	-6.83654397	0	1	1.06	0.94	44.9947	0.9155	0.0000	0.0000;
	21	1	0	0	0	0	1	1.01514254	-6.5240592	0	1	1.06	0.94	45.1091	0.7186	0.0000	0.0000;
	22	1	0	0	0	0	1	1.01508254	-6.46127541	0	1	1.06	0.94	45.0645	0.7110	0.0000	0.0000;
	23	1	6.3	2.1	0	0	1	1.01438299	-6.46845307	0	1	1.06	0.94	45.1344	0.7416	0.0000	0.0000;
	24	1	0	0	0	0	1	1.01719954	-5.84843354	0	1	1.06	0.94	45.3648	1.0083	0.0000	0.0000;
	25	1	6.3	3.2	0	5.9	1	1.00073031	-10.7724514	0	1	1.06	0.94	45.6294	1.2272	0.0000	0.0000;
	26	1	0	0	0	0	1	0.97616663	-5.33352299	0	1	1.06	0.94	45.4404	1.0730	0.0000	0.0000;
	27	1	9.3	0.5	0	0	1	1.01274966	-2.85613837	0	1	1.06	0.94	43.3251	0.7076	0.0000	0.0000;
	28	1	4.6	2.3	0	0	1	1.03323282	-1.5080534	0	1	1.06	0.94	42.1001	0.4912	0.0000	0.0000;
	29	1	17	2.6	0	0	1	1.05033997	-0.624596626	0	1	1.06	0.94	41.1482	0.2368	0.0000	0.0000;
	30	1	3.6	1.8	0	0	1	0.979997011	-11.3595421	0	1	1.06	0.94	46.7502	1.8563	0.0000	0.0000;
	31	1	5.8	2.9	0	0	1	0.950817585	-12.158041	0	1	1.06	0.94	48.3833	2.7806	0.0000	0.0000;
	32	1	1.6	0.8	0	0	1	0.960101873	-11.5506463	0	1	1.06	0.94	47.6077	2.5101	0.0000	0.0000;
	33	1	3.8	1.9	0	0	1	0.957832362	-11.5894741	0	1	1.06	0.94	47.7701	2.5915	0.0000	0.0000;
	34	1	0	0	0	0	1	0.966746763	-7.62393083	0	1	1.06	0.94	47.4032	2.2398	0.0000	0.0000;
	35	1	6	3	0	0	1	0.973140594	-7.40523438	0	1	1.06	0.94	47.0228	2.0323	0.0000	0.0000;
	36	1	0	0	0	0	1	0.982246859	-7.15007122	0	1	1.06	0.94	46.4490	1.7390	0.0000	0.0000;
	37	1	0	0	0	0	1	0.990636109	-6.99644681	0	1	1.06	0.94	46.0317	1.4403	0.0000	0.0000;
	38	1	14	7	0	0	1	1.01642924	-6.43137247	0	1	1.06	0.94	44.9174	0.6498	0.0000	0.0000;
	39	1	0	0	0	0	1	0.988767541	-7.02195395	0	1	1.06	0.94	46.1143	1.4910	0.0000	0.0000;
	40	1	0	0	0	0	1	0.979559304	-7.14181382	0	1	1.06	0.94	46.4876	1.8426	0.0000	0.0000;
	41	1	6.3	3	0	0	1	1.00667195	-6.41391759	0	1	1.06	0.94	43.0529	0.8574	0.0000	0.0000;
	42	1	7.1	4.4	0	0	1	0.974989603	-8.0373889	0	1	1.06	0.94	45.3353	1.5400	0.0000	0.0000;
	43	1	2	1	0	0	1	1.01985412	-3.47901986	0	1	1.06	0.94	43.0177	0.5190	0.0000	0.0000;
	44	1	12	1.8	0	0	1	1.01911831	-5.91099664	0	1	1.06	0.94	44.5152	0.5901	0.0000	0.0000;
	45	1	0	0	0	0	1	1.03476669	-4.06471893	0	1	1.06	0.94	43.0211	0.3304	0.0000	0.0000;
	46	1	0	0	0	0	1	1.05999983	-5.09051605	0	1	1.06	0.94	43.4675	-0.6522	1284.0335	0.0000;
	47	1	29.7	11.6	0	0	1	1.03446432	-6.29801885	0	1	1.06	0.94	44.2350	-0.0637	0.0000	0.0000;
	48	1	0	0	0	0	1	1.02938787	-6.32912157	0	1	1.06	0.94	44.4410	0.1791	0.0000	0.0000;
	49	1	18	8.5	0	0	1	1.03773046	-6.33890299	0	1	1.06	0.94	44.1259	0.1078	0.0000	0.0000;
	50	1	21	10.5	0	0	1	1.02411415	-6.4002453	0	1	1.06	0.94	44.6739	0.6185	0.0000	0.0000;
	51	1	18	5.3	0	0	1	1.05204011	-4.81741268	0	1	1.06	0.94	43.1527	0.2127	0.0000	0.0000;
	52	1	4.9	2.2	0	0	1	1.01932341	-2.16217103	0	1	1.06	0.94	43.4436	0.8466	0.0000	0.0000;
	53	1	20	10	0	6.3	1	1.00900057	-2.82855123	0	1	1.06	0.94	44.3930	0.9914	0.0000	0.0000;
	54	1	4.1	1.4	0	0	1	1.02933459	-2.19307826	0	1	1.06	0.94	43.3909	0.6759	0.0000	0.0000;
	55	1	6.8	3.4	0	0	1	1.05864578	-1.22473202	0	1	1.06	0.94	41.9450	0.1765	1.4208	0.0000;
	56	1	7.6	2.2	0	0	1	0.974633898	-8.76406851	0	1	1.06	0.94	46.2424	1.2365	0.0000	0.0000;
	57	1	6.7	2	0	0	1	0.969928753	-9.42054316	0	1	1.06	0.94	46.8296	1.2624	0.0000	0.0000;
];

%% generator data
%	bus	Pg	Qg	Qmax	Qmin	Vg	mBase	status	Pmax	Pmin	Pc1	Pc2	Qc1min	Qc1max	Qc2min	Qc2max	ramp_agc	ramp_10	ramp_30	ramp_q	apf	mu_Pmax	mu_Pmin	mu_Qmax	mu_Qmin
mpc.gen = [
	1	142.630237	44.5993126	200	-140	1.0093022	100	1	575.88	0	0	0	0	0	0	0	0	0	0	0	0	0.0000	0.0000	0.0000	0.0000;
	2	87.8149512	49.9985351	50	-17	1.00756528	100	1	100	0	0	0	0	0	0	0	0	0	0	0	0	0.0000	0.0000	0.1583	0.0000;
	3	45.0722667	28.7666028	60	-10	1.00327081	100	1	140	0	0	0	0	0	0	0	0	0	0	0	0	0.0000	0.0000	0.0000	0.0000;
	6	72.8885945	7.76716208	25	-8	1.02566431	100	1	100	0	0	0	0	0	0	0	0	0	0	0	0	0.0000	0.0000	0.0000	0.0000;
	8	459.822945	87.1685324	200	-140	1.04380793	100	1	550	0	0	0	0	0	0	0	0	0	0	0	0	0.0000	0.0000	0.0000	0.0000;
	9	97.5485906	8.99910847	9	-3	1.00405985	100	1	100	0	0	0	0	0	0	0	0	0	0	0	0	0.0029	0.0000	0.2475	0.0000;
	12	361.535209	43.2625706	155	-150	0.991849806	100	1	410	0	0	0	0	0	0	0	0	0	0	0	0	0.0000	0.0000	0.0000	0.0000;
];

%% branch data
%	fbus	tbus	r	x	b	rateA	rateB	rateC	ratio	angle	status	angmin	angmax	Pf	Qf	Pt	Qt	mu_Sf	mu_St	mu_angmin	mu_angmax
mpc.branch = [
	1	2	0.0083	0.028	0.129	0	0	0	0	0	1	-360	360	-46.0177	13.7041	46.2237	-26.1275	0.0000	0.0000	0.0000	0.0000;
	2	3	0.0298	0.085	0.0818	0	0	0	0	0	1	-360	360	38.5912	-11.8739	-38.1366	4.9019	0.0000	0.0000	0.0000	0.0000;
	3	4	0.0112	0.0366	0.038	0	0	0	0	0	1	-360	360	-7.0228	-8.5310	7.0331	4.7278	0.0000	0.0000	0.0000	0.0000;
	4	5	0.0625	0.132	0.0258	0	0	0	0	0	1	-360	360	-14.0820	-1.6268	14.2045	-0.7524	0.0000	0.0000	0.0000	0.0000;
	4	6	0.043	0.148	0.0348	0	0	0	0	0	1	-360	360	-25.2340	-7.0811	25.5163	4.4597	0.0000	0.0000	0.0000	0.0000;
	6	7	0.02	0.102	0.0276	0	0	0	0	0	1	-360	360	-13.3389	2.5516	13.3758	-5.2634	0.0000	0.0000	0.0000	0.0000;
	6	8	0.0339	0.173	0.047	0	0	0	0	0	1	-360	360	-41.7119	-3.6637	42.2730	1.4947	0.0000	0.0000	0.0000	0.0000;
	8	9	0.0099	0.0505	0.0548	0	0	0	0	0	1	-360	360	184.6303	50.2996	-181.2749	-38.9312	0.0000	0.0000	0.0000	0.0000;
	9	10	0.0369	0.1679	0.044	0	0	0	0	0	1	-360	360	36.8804	2.6293	-36.3739	-4.6740	0.0000	0.0000	0.0000	0.0000;
	9	11	0.0258	0.0848	0.0218	0	0	0	0	0	1	-360	360	46.9506	9.3734	-46.3584	-9.5808	0.0000	0.0000	0.0000	0.0000;
	9	12	0.0648	0.295	0.0772	0	0	0	0	0	1	-360	360	20.0814	-3.5533	-19.8221	-2.9551	0.0000	0.0000	0.0000	0.0000;
	9	13	0.0481	0.158	0.0406	0	0	0	0	0	1	-360	360	35.3369	4.8734	-34.7183	-6.8281	0.0000	0.0000	0.0000	0.0000;
	13	14	0.0132	0.0434	0.011	0	0	0	0	0	1	-360	360	17.2090	10.8035	-17.1504	-11.6543	0.0000	0.0000	0.0000	0.0000;
	13	15	0.0269	0.0869	0.023	0	0	0	0	0	1	-360	360	-14.1462	-8.4674	14.2178	6.4767	0.0000	0.0000	0.0000	0.0000;
	1	15	0.0178	0.091	0.0988	0	0	0	0	0	1	-360	360	51.4996	9.4469	-50.9996	-16.7463	0.0000	0.0000	0.0000	0.0000;
	1	16	0.0454	0.206	0.0546	0	0	0	0	0	1	-360	360	34.0223	-0.1311	-33.5033	-2.9758	0.0000	0.0000	0.0000	0.0000;
	1	17	0.0238	0.108	0.0286	0	0	0	0	0	1	-360	360	48.1260	4.5794	-47.5764	-4.9514	0.0000	0.0000	0.0000	0.0000;
	3	15	0.0162	0.053	0.0544	0	0	0	0	0	1	-360	360	49.2316	11.3958	-48.8094	-15.4080	0.0000	0.0000	0.0000	0.0000;
	4	18	0	0.555	0	0	0	0	0.97	0	1	-360	360	14.1583	2.6365	-14.1583	-1.5673	0.0000	0.0000	0.0000	0.0000;
	4	18	0	0.43	0	0	0	0	0.978	0	1	-360	360	18.1246	1.3437	-18.1246	-0.0026	0.0000	0.0000	0.0000	0.0000;
	5	6	0.0302	0.0641	0.0124	0	0	0	0	0	1	-360	360	-27.2045	-3.2476	27.4230	2.4195	0.0000	0.0000	0.0000	0.0000;
	7	8	0.0139	0.0712	0.0194	0	0	0	0	0	1	-360	360	-82.0158	-10.8197	82.9196	13.3743	0.0000	0.0000	0.0000	0.0000;
	10	12	0.0277	0.1262	0.0328	0	0	0	0	0	1	-360	360	-2.4170	-7.0043	2.4270	3.8480	0.0000	0.0000	0.0000	0.0000;
	11	13	0.0223	0.0732	0.0188	0	0	0	0	0	1	-360	360	21.5306	1.0361	-21.4229	-2.4910	0.0000	0.0000	0.0000	0.0000;
	12	13	0.0178	0.058	0.0604	0	0	0	0	0	1	-360	360	-2.0195	21.9738	2.1329	-27.4620	0.0000	0.0000	0.0000	0.0000;
	12	16	0.018	0.0813	0.0216	0	0	0	0	0	1	-360	360	9.5134	-2.0232	-9.4967	-0.0242	0.0000	0.0000	0.0000	0.0000;
	12	17	0.0397	0.179	0.0476	0	0	0	0	0	1	-360	360	-5.5636	-1.5810	5.5764	-3.0486	0.0000	0.0000	0.0000	0.0000;
	14	15	0.0171	0.0547	0.0148	0	0	0	0	0	1	-360	360	-36.0329	-20.8110	36.3422	20.3812	0.0000	0.0000	0.0000	0.0000;
	18	19	0.461	0.685	0	0	0	0	0	0	1	-360	360	5.0829	2.3027	-4.9466	-2.1002	0.0000	0.0000	0.0000	0.0000;
	19	20	0.283	0.434	0	0	0	0	0	0	1	-360	360	1.6466	1.5002	-1.6322	-1.4781	0.0000	0.0000	0.0000	0.0000;
	21	20	0	0.7767	0	0	0	0	1.043	0	1	-360	360	0.6678	-0.4727	-0.6678	0.4781	0.0000	0.0000	0.0000	0.0000;
	21	22	0.0736	0.117	0	0	0	0	0	0	1	-360	360	-0.6678	0.4727	0.6682	-0.4719	0.0000	0.0000	0.0000	0.0000;
	22	23	0.0099	0.0152	0	0	0	0	0	0	1	-360	360	2.7323	2.8921	-2.7308	-2.8898	0.0000	0.0000	0.0000	0.0000;
	23	24	0.166	0.256	0.0084	0	0	0	0	0	1	-360	360	-3.5692	0.7898	3.5922	-1.6211	0.0000	0.0000	0.0000	0.0000;
	24	25	0	1.182	0	0	0	0	1	0	1	-360	360	7.3921	1.7351	-7.3921	-1.0765	0.0000	0.0000	0.0000	0.0000;
	24	25	0	1.23	0	0	0	0	1	0	1	-360	360	7.1036	1.6674	-7.1036	-1.0345	0.0000	0.0000	0.0000	0.0000;
	24	26	0	0.0473	0	0	0	0	1.043	0	1	-360	360	-18.0879	-1.7814	18.0879	1.9457	0.0000	0.0000	0.0000	0.0000;
	26	27	0.165	0.254	0	0	0	0	0	0	1	-360	360	-18.0879	-1.9457	18.6610	2.8279	0.0000	0.0000	0.0000	0.0000;
	27	28	0.0618	0.0954	0	0	0	0	0	0	1	-360	360	-27.9610	-3.3279	28.4387	4.0654	0.0000	0.0000	0.0000	0.0000;
	28	29	0.0418	0.0587	0	0	0	0	0	0	1	-360	360	-33.0387	-6.3654	33.4820	6.9879	0.0000	0.0000	0.0000	0.0000;
	7	29	0	0.0648	0	0	0	0	0.967	0	1	-360	360	68.6401	16.0832	-68.6401	-13.2132	0.0000	0.0000	0.0000	0.0000;
	25	30	0.135	0.202	0	0	0	0	0	0	1	-360	360	8.1957	4.8196	-8.0739	-4.6373	0.0000	0.0000	0.0000	0.0000;
	30	31	0.326	0.497	0	0	0	0	0	0	1	-360	360	4.4739	2.8373	-4.3786	-2.6921	0.0000	0.0000	0.0000	0.0000;
	31	32	0.507	0.755	0	0	0	0	0	0	1	-360	360	-1.4214	-0.2079	1.4330	0.2252	0.0000	0.0000	0.0000	0.0000;
	32	33	0.0392	0.036	0	0	0	0	0	0	1	-360	360	3.8077	1.9071	-3.8000	-1.9000	0.0000	0.0000	0.0000	0.0000;
	34	32	0	0.953	0	0	0	0	0.975	0	1	-360	360	6.8407	3.5049	-6.8407	-2.9322	0.0000	0.0000	0.0000	0.0000;
	34	35	0.052	0.078	0.0032	0	0	0	0	0	1	-360	360	-6.8407	-3.5049	6.8730	3.2523	0.0000	0.0000	0.0000	0.0000;
	35	36	0.043	0.0537	0.0016	0	0	0	0	0	1	-360	360	-12.8730	-6.2523	12.9655	6.2150	0.0000	0.0000	0.0000	0.0000;
	36	37	0.029	0.0366	0	0	0	0	0	0	1	-360	360	-15.3335	-10.3555	15.4364	10.4853	0.0000	0.0000	0.0000	0.0000;
	37	38	0.0651	0.1009	0.002	0	0	0	0	0	1	-360	360	-18.4634	-13.4609	18.8080	13.7935	0.0000	0.0000	0.0000	0.0000;
	37	39	0.0239	0.0379	0	0	0	0	0	0	1	-360	360	3.0269	2.9755	-3.0226	-2.9686	0.0000	0.0000	0.0000	0.0000;
	36	40	0.03	0.0466	0	0	0	0	0	0	1	-360	360	2.3680	4.1405	-2.3609	-4.1295	0.0000	0.0000	0.0000	0.0000;
	22	38	0.0192	0.0295	0	0	0	0	0	0	1	-360	360	-3.4006	-2.4202	3.4038	2.4252	0.0000	0.0000	0.0000	0.0000;
	11	41	0	0.749	0	0	0	0	0.955	0	1	-360	360	10.0690	3.6034	-10.0690	-2.7963	0.0000	0.0000	0.0000	0.0000;
	41	42	0.207	0.352	0	0	0	0	0	0	1	-360	360	9.8778	3.3638	-9.6554	-2.9856	0.0000	0.0000	0.0000	0.0000;
	41	43	0	0.412	0	0	0	0	0	0	1	-360	360	-12.7588	-2.8941	12.7588	3.5899	0.0000	0.0000	0.0000	0.0000;
	38	44	0.0289	0.0585	0.002	0	0	0	0	0	1	-360	360	-14.7533	2.5859	14.8162	-2.6657	0.0000	0.0000	0.0000	0.0000;
	15	45	0	0.1042	0	0	0	0	0.955	0	1	-360	360	27.2489	0.2965	-27.2489	0.4263	0.0000	0.0000	0.0000	0.0000;
	14	46	0	0.0735	0	0	0	0	0.9	0	1	-360	360	42.6833	27.1653	-42.6833	-25.5467	0.0000	0.0000	0.0000	0.0000;
	46	47	0.023	0.068	0.0032	0	0	0	0	0	1	-360	360	42.6833	25.5467	-42.1749	-24.3945	0.0000	0.0000	0.0000	0.0000;
	47	48	0.0182	0.0233	0	0	0	0	0	0	1	-360	360	12.4749	12.7945	-12.4206	-12.7250	0.0000	0.0000	0.0000	0.0000;
	48	49	0.0834	0.129	0.0048	0	0	0	0	0	1	-360	360	-2.9356	-5.0136	2.9602	4.5389	0.0000	0.0000	0.0000	0.0000;
	49	50	0.0801	0.128	0	0	0	0	0	0	1	-360	360	5.6031	7.5333	-5.5375	-7.4285	0.0000	0.0000	0.0000	0.0000;
	50	51	0.1386	0.22	0	0	0	0	0	0	1	-360	360	-15.4625	-3.0715	15.7909	3.5928	0.0000	0.0000	0.0000	0.0000;
	10	51	0	0.0712	0	0	0	0	0.93	0	1	-360	360	33.7909	9.6782	-33.7909	-8.8928	0.0000	0.0000	0.0000	0.0000;
	13	49	0	0.191	0	0	0	0	0.895	0	1	-360	360	32.9455	32.1449	-32.9455	-28.7534	0.0000	0.0000	0.0000	0.0000;
	29	52	0.1442	0.187	0	0	0	0	0	0	1	-360	360	18.1581	3.6254	-17.7099	-3.0442	0.0000	0.0000	0.0000	0.0000;
	52	53	0.0762	0.0984	0	0	0	0	0	0	1	-360	360	12.8099	0.8442	-12.6891	-0.6881	0.0000	0.0000	0.0000	0.0000;
	53	54	0.1878	0.232	0	0	0	0	0	0	1	-360	360	-7.3109	-2.8980	7.4250	3.0389	0.0000	0.0000	0.0000	0.0000;
	54	55	0.1732	0.2265	0	0	0	0	0	0	1	-360	360	-11.5250	-4.4389	11.7743	4.7650	0.0000	0.0000	0.0000	0.0000;
	11	43	0	0.153	0	0	0	0	0.958	0	1	-360	360	14.7588	4.9413	-14.7588	-4.5899	0.0000	0.0000	0.0000	0.0000;
	44	45	0.0624	0.1242	0.004	0	0	0	0	0	1	-360	360	-26.8162	0.8657	27.2489	-0.4263	0.0000	0.0000	0.0000	0.0000;
	40	56	0	1.195	0	0	0	0	0.958	0	1	-360	360	2.3609	4.1295	-2.3609	-3.8709	0.0000	0.0000	0.0000	0.0000;
	56	41	0.553	0.549	0	0	0	0	0	0	1	-360	360	-6.4062	0.9155	6.6500	-0.6735	0.0000	0.0000	0.0000	0.0000;
	56	42	0.2125	0.354	0	0	0	0	0	0	1	-360	360	-2.5363	1.4462	2.5554	-1.4144	0.0000	0.0000	0.0000	0.0000;
	39	57	0	1.355	0	0	0	0	0.98	0	1	-360	360	3.0226	2.9686	-3.0226	-2.7297	0.0000	0.0000	0.0000	0.0000;
	57	56	0.174	0.26	0	0	0	0	0	0	1	-360	360	-3.6774	0.7297	3.7034	-0.6908	0.0000	0.0000	0.0000	0.0000;
	38	49	0.115	0.177	0.003	0	0	0	0	0	1	-360	360	-6.2644	-8.3164	6.3822	8.1813	0.0000	0.0000	0.0000	0.0000;
	38	48	0.0312	0.0482	0	0	0	0	0	0	1	-360	360	-15.1941	-17.4882	15.3562	17.7386	0.0000	0.0000	0.0000	0.0000;
	9	55	0	0.1205	0	0	0	0	0.94	0	1	-360	360	18.5743	8.6076	-18.5743	-8.1650	0.0000	0.0000	0.0000	0.0000;
];

%%-----  OPF Data  -----%%
%% generator cost data
%	1	startup	shutdown	n	x1	y1	...	xn	yn
%	2	startup	shutdown	n	c(n-1)	...	c0
mpc.gencost = [
	2	0	0	3	0.077579519	20	0;
	2	0	0	3	0.01	40	0;
	2	0	0	3	0.25	20	0;
	2	0	0	3	0.01	40	0;
	2	0	0	3	0.0222222222	20	0;
	2	0	0	3	0.01	40	0;
	2	0	0	3	0.0322580645	20	0;
];

%% bus names
mpc.bus_name = {
	'Kanawha   V1';
	'Turner    V1';
	'Logan     V1';
	'Sprigg    V1';
	'Bus 5     V1';
	'Beaver Ck V1';
	'Bus 7     V1';
	'Clinch Rv V1';
	'Saltville V1';
	'Bus 10    V1';
	'Tazewell  V1';
	'Glen Lyn  V1';
	'Bus 13    V1';
	'Bus 14    V1';
	'Bus 15    V1';
	'Bus 16    V1';
	'Bus 17    V1';
	'Sprigg    V2';
	'Bus 19    V2';
	'Bus 20    V2';
	'Bus 21    V3';
	'Bus 22    V3';
	'Bus 23    V3';
	'Bus 24    V3';
	'Bus 25    V4';
	'Bus 26    V5';
	'Bus 27    V5';
	'Bus 28    V5';
	'Bus 29    V5';
	'Bus 30    V4';
	'Bus 31    V4';
	'Bus 32    V4';
	'Bus 33    V4';
	'Bus 34    V3';
	'Bus 35    V3';
	'Bus 36    V3';
	'Bus 37    V3';
	'Bus 38    V3';
	'Bus 39    V3';
	'Bus 40    V3';
	'Tazewell  V6';
	'Bus 42    V6';
	'Tazewell  V7';
	'Bus 44    V3';
	'Bus 45    V3';
	'Bus 46    V3';
	'Bus 47    V3';
	'Bus 48    V3';
	'Bus 49    V3';
	'Bus 50    V3';
	'Bus 51    V3';
	'Bus 52    V5';
	'Bus 53    V5';
	'Bus 54    V5';
	'Saltville V5';
	'Bus 56    V6';
	'Bus 57    V6';
};
